Version 4
SHEET 1 1964 680
WIRE 592 -240 496 -240
WIRE 1776 -224 1680 -224
WIRE 496 -192 496 -240
WIRE 592 -192 592 -240
WIRE 1680 -176 1680 -224
WIRE 1776 -176 1776 -224
WIRE 144 -128 -16 -128
WIRE 352 -128 144 -128
WIRE 144 -112 144 -128
WIRE 1328 -112 1168 -112
WIRE 1536 -112 1328 -112
WIRE 1328 -96 1328 -112
WIRE 352 -64 352 -128
WIRE 592 -64 592 -112
WIRE -16 -48 -16 -128
WIRE 320 -48 272 -48
WIRE 1536 -48 1536 -112
WIRE 1776 -48 1776 -96
WIRE 416 -32 384 -32
WIRE 1168 -32 1168 -112
WIRE 1504 -32 1456 -32
WIRE 144 -16 144 -32
WIRE 320 -16 144 -16
WIRE 1600 -16 1568 -16
WIRE 1328 0 1328 -16
WIRE 1504 0 1328 0
WIRE 144 16 144 -16
WIRE 272 16 272 -48
WIRE 416 16 416 -32
WIRE 544 16 416 16
WIRE 1328 32 1328 0
WIRE 1456 32 1456 -32
WIRE 1600 32 1600 -16
WIRE 1728 32 1600 32
WIRE 592 64 592 32
WIRE 1776 80 1776 48
WIRE 144 112 144 96
WIRE -16 128 -16 32
WIRE 0 128 -16 128
WIRE 144 128 144 112
WIRE 144 128 0 128
WIRE 272 128 272 96
WIRE 272 128 144 128
WIRE 352 128 352 0
WIRE 352 128 272 128
WIRE 0 144 0 128
WIRE 1168 144 1168 48
WIRE 1184 144 1168 144
WIRE 1328 144 1328 112
WIRE 1328 144 1184 144
WIRE 1456 144 1456 112
WIRE 1456 144 1328 144
WIRE 1536 144 1536 16
WIRE 1536 144 1456 144
WIRE 1184 160 1184 144
FLAG 0 144 0
FLAG 496 -112 0
FLAG 592 64 0
FLAG 1184 160 0
FLAG 1680 -96 0
FLAG 1776 80 0
SYMBOL voltage -16 -64 R0
WINDOW 123 0 0 Left 0
WINDOW 39 0 0 Left 0
SYMATTR InstName V1
SYMATTR Value 5
SYMBOL res 128 -128 R0
WINDOW 3 36 76 Left 1
SYMATTR Value 330000
SYMATTR InstName R1
SYMATTR SpiceLine tol=5
SYMBOL nmos 544 -64 R0
SYMATTR InstName M1
SYMATTR Value RSF015N06
SYMBOL voltage 496 -208 R0
SYMATTR InstName V3
SYMATTR Value 5
SYMBOL res 576 -208 R0
SYMATTR InstName R_heatingpad
SYMATTR Value 6.5
SYMBOL Comparators\\LTC1441 352 -96 R0
SYMATTR InstName U1
SYMBOL voltage 272 0 R0
SYMATTR InstName V_crit
SYMATTR Value 2.39
SYMBOL Thermistor\\NTCS0805E3102_LT 144 64 R90
WINDOW 3 0 24 Top 1
WINDOW 39 0 48 Top 1
SYMATTR SpiceLine TR=495000 TB=4000
SYMATTR InstName U2
SYMBOL voltage 1168 -48 R0
WINDOW 123 0 0 Left 0
WINDOW 39 0 0 Left 0
SYMATTR InstName V4
SYMATTR Value 5
SYMBOL res 1312 -112 R0
WINDOW 3 36 76 Left 1
SYMATTR Value 330000
SYMATTR InstName R2
SYMATTR SpiceLine tol=5
SYMBOL nmos 1728 -48 R0
SYMATTR InstName M2
SYMATTR Value RSF015N06
SYMBOL voltage 1680 -192 R0
SYMATTR InstName V5
SYMATTR Value 5
SYMBOL res 1760 -192 R0
SYMATTR InstName Heating_Pad1
SYMATTR Value 6.5
SYMBOL Comparators\\LTC1441 1536 -80 R0
SYMATTR InstName U3
SYMBOL voltage 1456 16 R0
SYMATTR InstName V6
SYMATTR Value 2.44
SYMBOL res 1312 16 R0
WINDOW 3 36 76 Left 1
SYMATTR Value 400000
SYMATTR InstName R3
TEXT 0 184 Left 2 ;.tran 10
TEXT 1184 200 Left 2 !.tran 10
